New England/MatPower Cases/Easy/Winter68Generous.m
% Case saved by PowerWorld Simulator, version 19, build date July 14, 2016
function mpc = Winter68
mpc.version = '2';
mpc.baseMVA =  100.00;

%% bus data 
mpc.bus = [
      1 2      0.00     0.00      0.00     0.00    1 1.0249312   -26.02985  345.00   1   1.100   0.980    27.65     0.00 0  0
      2 1    105.78    32.57      0.00     0.00    1 1.0231920   -26.31981  345.00   1   1.060   0.920    27.65    -0.02 0  0
      3 2      0.00     0.00      0.00     0.00    1 1.0200022   -14.75225  138.00   1   1.100   0.980    26.35     0.00 0  0
      4 1     81.15    24.18      0.00     0.00    1 0.9626565   -30.01627  138.00   1   1.060   0.920    27.61    -0.01 0  0
      5 1     99.34    32.75      0.00     0.00    1 0.9745854   -27.39637  230.00   1   1.060   0.920    27.60    -0.00 0  0
      6 1     91.74    27.54      0.00     0.00    1 1.0079549   -13.69079  138.00   1   1.060   0.920    27.58     0.00 0  0
      7 2    155.57    49.97      0.00     0.00    1 1.0200014   -26.85535  138.00   1   1.100   0.980    27.60     0.00 0  0
      8 2    120.69    37.93      0.00     0.00    1 1.0200015   -24.87030  230.00   1   1.100   0.980    27.60     0.00 0  0
      9 1      0.00     0.00      0.00     0.00    1 1.0270152   -26.39767  345.00   1   1.060   0.920    27.60    -0.00 0  0
     10 3     91.81    31.09      0.00     0.00    1 1.0200000     0.00000  138.00   1   1.100   0.980    27.58     0.00 0  0
     11 1      0.00     0.00      0.00     0.00    1 1.0159224    -1.33841  138.00   1   1.060   0.920    27.58    -0.00 0  0
     12 1      2.74     0.83      0.00     0.00    1 1.0146018    -2.42010  138.00   1   1.060   0.920    27.58    -0.00 0  0
     13 1      0.00     0.00      0.00     0.00    1 1.0137588    -5.22982  345.00   1   1.060   0.920    27.58    -0.00 0  0
     14 1    117.84    34.01      0.00     0.00    1 1.0120994   -13.83921  230.00   1   1.060   0.920    27.58    -0.00 0  0
     15 1    139.98    41.77      0.00     0.00    1 1.0033110   -18.77523  230.00   1   1.060   0.920    27.57     0.00 0  0
     16 1    154.69    44.92      0.00     0.00    1 1.0017004   -21.98371  138.00   1   1.060   0.920    27.54    -0.00 0  0
     17 1     87.45    29.46      0.00     0.00    1 0.9755286   -24.77224  138.00   1   1.060   0.920    27.38     0.04 0  0
     18 1     98.54    29.23      0.00     0.00    1 0.9711983   -24.15486  138.00   1   1.060   0.920    26.83     0.19 0  0
     19 1    101.91    33.62      0.00     0.00    1 0.9876984   -22.10742  138.00   1   1.060   0.920    27.58    -0.00 0  0
     20 1    100.83    31.07      0.00     0.00    1 0.9989508   -19.17957   69.00   1   1.060   0.920    27.58    -0.00 0  0
     21 1    138.53    38.63      0.00     0.00    1 0.9758915   -25.36640  138.00   1   1.060   0.920    27.57    -0.00 0  0
     22 1    126.60    35.95      0.00     0.00    1 0.9887837    -9.95873  230.00   1   1.060   0.920    27.58    -0.00 0  0
     23 1     96.75    30.45      0.00     0.00    1 0.9930201   -12.62025  230.00   1   1.060   0.920    27.58    -0.00 0  0
     24 2    117.30    37.78      0.00     0.00    1 1.0200014   -15.85778  230.00   1   1.100   0.980    27.58     0.00 0  0
     25 1     73.10    24.59      0.00     0.00    1 1.0033161   -26.56677  230.00   1   1.060   0.920    27.61    -0.01 0  0
     26 2     89.28    24.24      0.00     0.00    1 1.0200033   -35.61006  345.00   1   1.100   0.980    27.61     0.00 0  0
     27 1     96.68    32.76      0.00     0.00    1 0.9822587   -33.99694  230.00   1   1.060   0.920    27.58     0.02 0  0
     28 2    133.72    38.69      0.00     0.00    1 1.0200049   -27.63519  138.00   1   1.100   0.980    27.64     0.00 0  0
     29 1     84.84    30.60      0.00     0.00    1 1.0139592   -25.35149  138.00   1   1.060   0.920    27.64    -0.00 0  0
     30 2      0.00     0.00      0.00     0.00    1 1.0200023   -24.47184   14.00   1   1.100   0.980    27.65     0.00 0  0
     31 2      0.00     0.00      0.00     0.00    1 1.0200007    -8.68983   14.00   1   1.100   0.980    27.58     0.00 0  0
     32 2      0.00     0.00      0.00     0.00    1 1.0200000     2.67153   14.00   1   1.100   0.980    27.58     0.00 0  0
     33 2    127.80    30.72      0.00     0.00    1 1.0200026   -18.67344   14.00   1   1.100   0.980    27.58     0.00 0  0
     34 2     83.58    26.65      0.00     0.00    1 1.0200028   -15.63857   14.00   1   1.100   0.980    27.58     0.00 0  0
     35 2      0.00     0.00      0.00     0.00    1 1.0200028     1.25643   14.00   1   1.100   0.980    27.58     0.00 0  0
     36 2      0.00     0.00      0.00     0.00    1 1.0200024    -9.44353   14.00   1   1.100   0.980    27.58     0.00 0  0
     37 2      0.00     0.00      0.00     0.00    1 1.0200021   -24.65845   14.00   1   1.100   0.980    27.61     0.00 0  0
     38 2      0.00     0.00      0.00     0.00    1 1.0200051   -22.69023   14.00   1   1.100   0.980    27.64     0.00 0  0
     39 1     85.11    28.52      0.00     0.00    1 1.0159775   -33.27760  345.00   1   1.060   0.920    27.62    -0.01 0  0
     40 1     85.32    26.27      0.00     0.00    1 1.0089961   -37.05802  345.00   1   1.060   0.920    27.61    -0.00 0  0
     41 1    109.10    31.13      0.00     0.00    1 0.9880778   -33.29361  345.00   1   1.060   0.920    27.57     0.01 0  0
     42 1    120.42    31.57      0.00     0.00    1 1.0197766   -38.03937  345.00   1   1.060   0.920    27.62     0.00 0  0
     43 1    112.89    38.69      0.00     0.00    1 1.0154709   -35.98247  345.00   1   1.060   0.920    27.61    -0.00 0  0
     44 1     86.26    30.40      0.00     0.00    1 1.0049366   -28.48527  230.00   1   1.060   0.920    27.60    -0.00 0  0
     45 1    121.02    34.17      0.00     0.00    1 1.0137622   -28.19845  345.00   1   1.060   0.920    27.60    -0.00 0  0
     46 1    108.54    36.42      0.00     0.00    1 0.9476507   -30.59109  138.00   1   1.060   0.920    27.60    -0.00 0  0
     47 1     99.27    34.81      0.00     0.00    1 0.8998732   -34.52320  138.00   1   1.060   0.920    27.60    -0.01 0  0
     48 1    117.50    38.68      0.00     0.00    1 0.9601458   -30.54098  345.00   1   1.060   0.920    27.61    -0.02 0  0
     49 2     79.00    30.18      0.00     0.00    1 1.0200015   -24.15370  138.00   1   1.100   0.980    27.60     0.00 0  0
     50 1    112.83    39.05      0.00     0.00    1 0.9769242   -29.64012  138.00   1   1.060   0.920    27.60    -0.00 0  0
     51 1     99.52    32.33      0.00     0.00    1 0.9832801   -34.45448  138.00   1   1.060   0.920    27.60    -0.00 0  0
     52 2    124.23    34.70      0.00     0.00    1 1.0200014   -27.93192  345.00   1   1.100   0.980    27.60     0.00 0  0
     53 1    177.17    57.14      0.00     0.00    1 0.9685040   -33.18492  138.00   1   1.060   0.920    27.60    -0.00 0  0
     54 2     87.82    35.43      0.00     0.00    1 1.0200015   -24.24807  230.00   1   1.100   0.980    27.60     0.00 0  0
     55 1    118.56    41.26      0.00     0.00    1 1.0017223   -27.58398  230.00   1   1.060   0.920    27.60    -0.00 0  0
     56 2    127.03    38.65      0.00     0.00    1 1.0200007   -13.97596  345.00   1   1.100   0.980    27.57     0.00 0  0
     57 1     75.26    28.03      0.00     0.00    1 0.9290144   -32.70234  138.00   1   1.060   0.920    27.60    -0.00 0  0
     58 1    150.35    41.29      0.00     0.00    1 0.9965960   -15.06914  345.00   1   1.060   0.920    27.58    -0.00 0  0
     59 1     96.36    31.77      0.00     0.00    1 1.0108235   -17.71399  345.00   1   1.060   0.920    27.57     0.00 0  0
     60 1    107.56    37.39      0.00     0.00    1 0.9300099   -29.99449  138.00   1   1.060   0.920    27.59    -0.00 0  0
     61 1    126.75    36.04      0.00     0.00    1 1.0102151   -20.77523  230.00   1   1.060   0.920    27.57     0.00 0  0
     62 1    117.01    33.09      0.00     0.00    1 0.9899155   -16.04527  345.00   1   1.060   0.920    27.58    -0.00 0  0
     63 1     93.06    35.22      0.00     0.00    1 0.9210993   -32.16532  138.00   1   1.060   0.920    27.60    -0.01 0  0
     64 1    189.92    60.08      0.00     0.00    1 0.9502890   -23.01631  138.00   1   1.060   0.920    27.59    -0.00 0  0
     65 1     81.70    30.66      0.00     0.00    1 0.9924617   -27.74941  138.00   1   1.060   0.920    27.60    -0.00 0  0
     66 1     94.05    36.08      0.00     0.00    1 1.0008121   -14.78042  345.00   1   1.060   0.920    27.58    -0.00 0  0
     67 1    106.96    30.79      0.00     0.00    1 0.9701268   -34.36383  138.00   1   1.060   0.920    27.60    -0.00 0  0
     68 1    127.76    39.84      0.00     0.00    1 0.9820185   -32.71105  138.00   1   1.060   0.920    27.60    -0.00 0  0
     69 2     76.17    27.85      0.00     0.00    1 1.0200001    -5.47920  345.00   1   1.100   0.980    27.58     0.00 0  0
     70 1    101.74    32.67      0.00     0.00    1 1.0063212    -8.02314  138.00   1   1.060   0.920    27.58     0.00 0  0
     71 1     82.84    28.46      0.00     0.00    1 1.0082393   -14.07939  345.00   1   1.060   0.920    27.58    -0.00 0  0
     72 2     74.28    27.23      0.00     0.00    1 0.9867011   -34.37858  138.00   1   1.100   0.980    27.60    -0.00 0  0
     73 1     86.62    28.57      0.00     0.00    1 0.9829804   -34.44683  138.00   1   1.060   0.920    27.60    -0.00 0  0
     74 1     95.18    32.72      0.00     0.00    1 0.9802020   -27.84241  345.00   1   1.060   0.920    27.61    -0.01 0  0
     75 1     99.72    33.32      0.00     0.00    1 0.9512877   -30.54410  138.00   1   1.060   0.920    27.61    -0.01 0  0
     76 2    125.12    30.41      0.00     0.00    1 1.0200007   -12.87011  345.00   1   1.100   0.980    27.58     0.00 0  0
     77 1     85.26    24.62      0.00     0.00    1 0.9901091   -31.87378  138.00   1   1.060   0.920    27.64     0.00 0  0
     78 2    103.58    29.52      0.00     0.00    1 1.0200048   -38.08043  345.00   1   1.100   0.980    27.63     0.00 0  0
     79 1    135.00    45.41      0.00     0.00    1 1.0351898   -45.40238  345.00   1   1.060   0.920    27.63    -0.00 0  0
     80 2    109.52    32.63      0.00     0.00    1 1.0200056   -40.21797  345.00   1   1.100   0.980    27.63     0.00 0  0
     81 1    117.51    32.34      0.00     0.00    1 1.0157413   -38.42340  345.00   1   1.060   0.920    27.63    -0.00 0  0
     82 2     84.65    25.18      0.00     0.00    1 1.0200055   -32.61584  345.00   1   1.100   0.980    27.63     0.00 0  0
     83 1     88.85    30.45      0.00     0.00    1 1.0199167   -32.13334  345.00   1   1.060   0.920    27.63    -0.00 0  0
     84 2     69.86    25.72      0.00     0.00    1 1.0200049   -28.99111  138.00   1   1.100   0.980    27.64     0.00 0  0
     85 1     76.48    28.81      0.00     0.00    1 0.9862935   -31.83222  230.00   1   1.060   0.920    27.65    -0.00 0  0
     86 1    112.68    33.79      0.00     0.00    1 0.9843134   -30.64859  138.00   1   1.060   0.920    27.65    -0.00 0  0
     87 1    126.86    33.23      0.00     0.00    1 1.0427692   -45.36249  345.00   1   1.060   0.920    27.63    -0.00 0  0
     88 1    103.24    34.77      0.00     0.00    1 1.0108021   -28.88093  138.00   1   1.060   0.920    27.64     0.00 0  0
     89 1     82.95    30.56      0.00     0.00    1 0.9414663   -36.66904  138.00   1   1.060   0.920    27.64     0.00 0  0
     90 1     83.28    29.70      0.00     0.00    1 0.9812454   -13.50423  230.00   1   1.060   0.920    27.58    -0.00 0  0
     91 1     96.26    25.48      0.00     0.00    1 0.9671419   -15.58485  230.00   1   1.060   0.920    27.58    -0.00 0  0
     92 1     90.89    30.10      0.00     0.00    1 0.9737382   -15.69472  345.00   1   1.060   0.920    27.58    -0.00 0  0
     93 1    102.56    29.65      0.00     0.00    1 0.9775474   -17.12671  345.00   1   1.060   0.920    27.58    -0.00 0  0
     94 1    122.84    37.18      0.00     0.00    1 0.9883053   -24.31451  138.00   1   1.060   0.920    27.58    -0.00 0  0
     95 1    113.83    30.56      0.00     0.00    1 0.9746993   -23.59277  138.00   1   1.060   0.920    27.58    -0.00 0  0
     96 1    126.68    37.98      0.00     0.00    1 0.9750081   -23.01327  138.00   1   1.060   0.920    27.58    -0.00 0  0
     97 1    124.84    32.48      0.00     0.00    1 0.9891448   -19.77598  345.00   1   1.060   0.920    27.58    -0.00 0  0
     98 1    131.53    32.70      0.00     0.00    1 1.0135161   -20.10312  345.00   1   1.060   0.920    27.58    -0.00 0  0
     99 1    124.98    34.25      0.00     0.00    1 0.9800544   -21.54509  345.00   1   1.060   0.920    27.58    -0.00 0  0
    100 1    102.22    29.88      0.00     0.00    1 0.9769091   -11.59447  138.00   1   1.060   0.920    27.58    -0.00 0  0
    101 1     96.35    32.05      0.00     0.00    1 0.9740238   -17.56811  345.00   1   1.060   0.920    27.58    -0.00 0  0
    102 1     68.57    26.29      0.00     0.00    1 0.9737283   -25.15179  138.00   1   1.060   0.920    27.58    -0.00 0  0
    103 2    145.75    49.50      0.00     0.00    1 1.0200024   -21.95632  138.00   1   1.100   0.980    27.58     0.00 0  0
    104 1    107.50    32.73      0.00     0.00    1 0.9644154   -25.46658  138.00   1   1.060   0.920    27.58    -0.00 0  0
    105 1     83.83    23.66      0.00     0.00    1 0.9771297   -23.83168  138.00   1   1.060   0.920    27.58    -0.00 0  0
    106 1     84.99    28.72      0.00     0.00    1 0.9693116   -26.08154  138.00   1   1.060   0.920    27.58    -0.00 0  0
    107 1     95.89    24.96      0.00     0.00    1 0.9708851   -25.48804  138.00   1   1.060   0.920    27.58    -0.00 0  0
    108 1    147.57    42.16      0.00     0.00    1 0.9664691   -25.23445  230.00   1   1.060   0.920    27.58    -0.00 0  0
    109 1    117.30    38.80      0.00     0.00    1 0.9757633   -27.51509  138.00   1   1.060   0.920    27.58    -0.00 0  0
    110 1     68.80    21.82      0.00     0.00    1 0.9787869   -23.00927  138.00   1   1.060   0.920    27.58    -0.00 0  0
    111 1    111.95    36.81      0.00     0.00    1 0.9816450   -22.80745  345.00   1   1.060   0.920    27.58    -0.00 0  0
    112 1    145.36    39.10      0.00     0.00    1 0.9495897   -28.44133  138.00   1   1.060   0.920    27.58    -0.00 0  0
    113 1     68.06    22.27      0.00     0.00    1 0.9364866   -29.72570  138.00   1   1.060   0.920    27.58    -0.00 0  0
    114 1     70.35    27.46      0.00     0.00    1 0.9716465   -24.80508  138.00   1   1.060   0.920    27.58    -0.00 0  0
    115 1     77.60    25.69      0.00     0.00    1 0.9780193   -15.13690  345.00   1   1.060   0.920    27.58    -0.00 0  0
    116 1    130.80    34.22      0.00     0.00    1 1.0049151   -24.64832  230.00   1   1.060   0.920    27.58    -0.00 0  0
    117 1    103.76    31.21      0.00     0.00    1 0.9879171   -25.41964  138.00   1   1.060   0.920    27.55    -0.00 0  0
    118 1     69.34    25.88      0.00     0.00    1 0.9752415   -24.34500  138.00   1   1.060   0.920    27.58    -0.00 0  0
    119 1    125.52    37.26      0.00     0.00    1 0.9716598   -25.12561  138.00   1   1.060   0.920    27.58    -0.00 0  0
    120 2     83.73    27.96      0.00     0.00    1 1.0200029   -24.80475  230.00   1   1.100   0.980    27.58     0.00 0  0
    121 1     98.03    31.03      0.00     0.00    1 1.0143581   -25.34341  230.00   1   1.060   0.920    27.58    -0.00 0  0
    122 1     83.31    26.56      0.00     0.00    1 0.9717786   -27.51582  138.00   1   1.060   0.920    27.56    -0.00 0  0
    123 1    115.59    32.54      0.00     0.00    1 1.0062542   -23.63776  230.00   1   1.060   0.920    27.58    -0.00 0  0
    124 1    117.83    33.02      0.00     0.00    1 0.9632534   -29.05447  230.00   1   1.060   0.920    27.59     0.00 0  0
    125 1    122.10    34.56      0.00     0.00    1 0.9670937   -27.14781  138.00   1   1.060   0.920    27.58    -0.00 0  0
    126 1    104.04    27.63      0.00     0.00    1 0.9813219   -27.83944  230.00   1   1.060   0.920    27.59     0.00 0  0
    127 1    118.52    31.70      0.00     0.00    1 0.9741363   -28.43059  230.00   1   1.060   0.920    27.60     0.00 0  0
    128 2    127.45    37.78      0.00     0.00    1 1.0200023   -18.57429  138.00   1   1.100   0.980    27.51     0.00 0  0
    129 1    100.95    34.05      0.00     0.00    1 0.9600259   -27.26320  138.00   1   1.060   0.920    27.57    -0.00 0  0
    130 2    106.38    34.73      0.00     0.00    1 1.0200023   -21.57077  138.00   1   1.100   0.980    27.55     0.00 0  0
    131 1    138.02    36.65      0.00     0.00    1 0.9530326   -28.43241  138.00   1   1.060   0.920    27.58    -0.00 0  0
    132 1    129.92    32.71      0.00     0.00    1 0.9797599   -26.34698  230.00   1   1.060   0.920    27.59    -0.00 0  0
    133 1     88.72    26.14      0.00     0.00    1 0.9800274   -27.44760  230.00   1   1.060   0.920    27.60    -0.01 0  0
    134 1    102.89    28.06      0.00     0.00    1 0.9735360   -26.31425  230.00   1   1.060   0.920    27.59    -0.00 0  0
    135 1     80.68    26.34      0.00     0.00    1 1.0023841   -23.09130  345.00   1   1.060   0.920    27.58    -0.00 0  0
    136 1     95.99    28.47      0.00     0.00    1 0.9683939   -25.06711  138.00   1   1.060   0.920    27.58    -0.00 0  0
    137 1     80.06    24.71      0.00     0.00    1 1.0125499   -21.98354  345.00   1   1.060   0.920    27.58    -0.00 0  0
    138 1    124.54    34.88      0.00     0.00    1 0.9787911   -21.98407  345.00   1   1.060   0.920    27.58    -0.00 0  0
    139 1    110.68    31.17      0.00     0.00    1 1.0145435   -27.69779  345.00   1   1.060   0.920    27.64    -0.02 0  0
    140 1    138.52    32.29      0.00     0.00    1 0.9899447    -9.87770  138.00   1   1.060   0.920    27.58    -0.00 0  0
    141 2    127.48    37.15      0.00     0.00    1 1.0200014    -5.54116  345.00   1   1.100   0.980    27.58     0.00 0  0
    142 1     90.04    29.29      0.00     0.00    1 0.9668372   -28.52934  230.00   1   1.060   0.920    27.59    -0.00 0  0
    143 2    122.08    37.50      0.00     0.00    1 1.0200011   -21.14979  230.00   1   1.100   0.980    27.57     0.00 0  0
    144 1    141.36    36.57      0.00     0.00    1 1.0105391   -22.55444  230.00   1   1.060   0.920    27.57    -0.00 0  0
    145 1    113.69    35.12      0.00     0.00    1 0.9846743   -22.93790  138.00   1   1.060   0.920    27.47     0.01 0  0
    146 2    122.12    31.09      0.00     0.00    1 1.0188879   -21.16071  345.00   1   1.100   0.980    27.58    -0.00 0  0
    147 1     84.08    27.95      0.00     0.00    1 0.9653347   -25.91303  138.00   1   1.060   0.920    27.58    -0.00 0  0
    148 1     93.17    30.13      0.00     0.00    1 0.9782015   -16.50691  345.00   1   1.060   0.920    27.58    -0.00 0  0
    149 2    146.62    40.78      0.00     0.00    1 1.0200017   -20.36642  138.00   1   1.100   0.980    27.52     0.00 0  0
    150 1    109.29    33.57      0.00     0.00    1 0.9495575   -32.16670  345.00   1   1.060   0.920    27.61    -0.02 0  0
    151 1     95.13    32.91      0.00     0.00    1 1.0144584   -21.73873  345.00   1   1.060   0.920    27.58    -0.00 0  0
    152 1     79.43    28.57      0.00     0.00    1 0.9452368   -28.69787  138.00   1   1.060   0.920    27.58    -0.00 0  0
    153 1     90.92    33.95      0.00     0.00    1 0.9977011   -23.58550  345.00   1   1.060   0.920    27.58    -0.00 0  0
    154 1    108.70    35.36      0.00     0.00    1 0.9769857   -31.90106  230.00   1   1.060   0.920    27.66    -0.01 0  0
    155 1     99.85    32.39      0.00     0.00    1 0.9611943   -32.00747  138.00   1   1.060   0.920    27.68    -0.00 0  0
    156 1    102.89    31.67      0.00     0.00    1 1.0031644   -25.19191  345.00   1   1.060   0.920    27.63     0.00 0  0
    157 2    101.88    33.05      0.00     0.00    1 1.0200040   -22.59054  138.00   1   1.100   0.980    27.85     0.00 0  0
    158 1    101.58    31.53      0.00     0.00    1 0.9828881   -28.11010  138.00   1   1.060   0.920    27.33    -0.00 0  0
    159 1    104.24    30.08      0.00     0.00    1 0.9968745   -30.14133  345.00   1   1.060   0.920    27.55     0.02 0  0
    160 1    127.10    38.41      0.00     0.00    1 0.9606289   -35.04081  230.00   1   1.060   0.920    27.62     0.00 0  0
    161 1     71.67    24.76      0.00     0.00    1 0.9851924   -28.43571  138.00   1   1.060   0.920    27.41     0.02 0  0
    162 2     98.15    30.63      0.00     0.00    1 1.0200036   -20.62309  345.00   1   1.100   0.980    27.58     0.00 0  0
    163 1    118.86    31.12      0.00     0.00    1 1.0015172   -25.78616  230.00   1   1.060   0.920    27.61     0.02 0  0
    164 1     95.43    31.22      0.00     0.00    1 0.9772164   -26.93602  138.00   1   1.060   0.920    27.45     0.02 0  0
    165 2    100.31    31.95      0.00     0.00    1 1.0200037   -17.34457  230.00   1   1.100   0.980    27.58     0.00 0  0
    166 2     93.35    27.35      0.00     0.00    1 1.0200038   -23.53469  138.00   1   1.100   0.980    27.34     0.00 0  0
    167 1     93.25    31.38      0.00     0.00    1 1.0230642   -37.14276  345.00   1   1.060   0.920    27.62    -0.00 0  0
    168 1     64.92    23.04      0.00     0.00    1 0.9819307   -28.06932  230.00   1   1.060   0.920    27.61    -0.01 0  0
    169 1     95.83    27.89      0.00     0.00    1 0.9890671   -27.58415  138.00   1   1.060   0.920    27.68    -0.00 0  0
    170 1    109.24    29.95      0.00     0.00    1 0.9468387   -14.05800  138.00   1   1.060   0.920    27.58    -0.00 0  0
    171 1     96.65    29.49      0.00     0.00    1 0.9557469   -13.53696  138.00   1   1.060   0.920    27.58    -0.00 0  0
    172 1    109.90    34.69      0.00     0.00    1 0.9730392   -10.33338  138.00   1   1.060   0.920    27.58    -0.00 0  0
    173 1     99.21    33.32      0.00     0.00    1 0.9690733    -9.75277  138.00   1   1.060   0.920    27.58    -0.00 0  0
    174 1    116.95    34.88      0.00     0.00    1 1.0079884   -15.73414  345.00   1   1.060   0.920    27.58    -0.00 0  0
    175 2     94.57    32.31      0.00     0.00    1 1.0200016   -15.25035  138.00   1   1.100   0.980    27.58     0.00 0  0
    176 2    114.95    35.34      0.00     0.00    1 1.0200017   -21.05725  345.00   1   1.100   0.980    27.58     0.00 0  0
    177 1    159.11    50.58      0.00     0.00    1 1.0086202   -17.07691  230.00   1   1.060   0.920    27.58    -0.00 0  0
    178 1     87.35    26.15      0.00     0.00    1 0.9883253   -20.68115  138.00   1   1.060   0.920    27.58    -0.00 0  0
    179 1      8.04     2.59      0.00     0.00    1 0.9872718   -20.75302  138.00   1   1.060   0.920    27.58    -0.00 0  0
    180 1     11.71     3.29      0.00     0.00    1 1.0079409   -15.79307  345.00   1   1.060   0.920    27.58    -0.00 0  0
    181 1      0.00     0.00      0.00     0.00    1 1.0261201   -20.34938  345.00   1   1.060   0.920    27.72    -0.11 0  0
    182 1      0.00     0.00      0.00     0.00    1 0.9812106   -27.36006  345.00   1   1.060   0.920    27.61    -0.01 0  0
    183 1      0.00     0.00      0.00     0.00    1 0.9979254   -27.62236  345.00   1   1.060   0.920    27.61    -0.01 0  0
    184 1      0.00     0.00      0.00     0.00    1 1.0093630   -15.83590  230.00   1   1.060   0.920    27.58     0.00 0  0
    185 1      0.00     0.00      0.00     0.00    1 1.0046360   -13.24785  345.00   1   1.060   0.920    27.58    -0.00 0  0
    186 1      0.00     0.00      0.00     0.00    1 1.0019933   -28.54161  345.00   1   1.060   0.920    27.60    -0.00 0  0
    187 1      0.00     0.00      0.00     0.00    1 1.0168608   -26.31516  345.00   1   1.060   0.920    27.60    -0.00 0  0
    188 1      0.00     0.00      0.00     0.00    1 1.0146513    -4.54656  345.00   1   1.060   0.920    27.58    -0.00 0  0
    189 1      0.00     0.00      0.00     0.00    1 1.0143839    -5.31145  345.00   1   1.060   0.920    27.58    -0.00 0  0
    190 1      0.00     0.00      0.00     0.00    1 1.0114571   -11.95613  345.00   1   1.060   0.920    27.58    -0.00 0  0
    191 1      0.00     0.00      0.00     0.00    1 1.0149572   -16.72319  345.00   1   1.060   0.920    27.57     0.00 0  0
    192 1      0.00     0.00      0.00     0.00    1 1.0068508   -21.48948  230.00   1   1.060   0.920    27.56     0.00 0  0
    193 1      0.00     0.00      0.00     0.00    1 1.0096927   -20.20366  345.00   1   1.060   0.920    27.55     0.00 0  0
    194 1      0.00     0.00      0.00     0.00    1 1.0053414   -22.21167  345.00   1   1.060   0.920    27.53     0.01 0  0
    195 1      0.00     0.00      0.00     0.00    1 0.9759762   -23.88724  230.00   1   1.060   0.920    27.58    -0.00 0  0
    196 1      0.00     0.00      0.00     0.00    1 0.9806227   -21.97292  345.00   1   1.060   0.920    27.58    -0.00 0  0
    197 1      0.00     0.00      0.00     0.00    1 0.9813389   -24.73151  230.00   1   1.060   0.920    27.58    -0.00 0  0
    198 1      0.00     0.00      0.00     0.00    1 0.9801784   -21.86901  345.00   1   1.060   0.920    27.58    -0.00 0  0
    199 1      0.00     0.00      0.00     0.00    1 0.9833876   -14.41302  345.00   1   1.060   0.920    27.58    -0.00 0  0
    200 1      0.00     0.00      0.00     0.00    1 1.0092894   -17.65636  345.00   1   1.060   0.920    27.58    -0.00 0  0
...
];

%% generator data 
mpc.gen = [
      1      4.46   -103.00    103.00   -103.00  1.0200    100.00 1    338.00      3.00     81.31   9999.90   -500.00   1500.00   -500.00   1500.00 0 0 0 0   0.0000 0 0 0 0
      3    443.30     20.96    392.00   -209.00  1.0200    100.00 1    686.00    298.00      0.00      0.00      0.00      0.00      0.00      0.00 0 0 0 0   0.0000 0 0 0 0
      7    206.77    235.17    385.00   -205.00  1.0200    100.00 1    674.00    139.00      0.00      0.00      0.00      0.00      0.00      0.00 0 0 0 0   0.0000 0 0 0 0
      8    281.15    189.78    349.00   -186.00  1.0200    100.00 1    611.00    189.00      0.00      0.00      0.00      0.00      0.00      0.00 0 0 0 0   0.0000 0 0 0 0
     10   2539.61    283.40   1298.00   -692.00  1.0200    100.00 1   2271.00   1406.00      0.00      0.00      0.00      0.00      0.00      0.00 0 0 0 0   0.0000 0 0 0 0
     24    428.42    190.67    309.00   -165.00  1.0200    100.00 1    541.00    288.00      0.00      0.00      0.00      0.00      0.00      0.00 0 0 0 0   0.0000 0 0 0 0
     26    178.51     41.31    171.00    -91.00  1.0200    100.00 1    300.00    120.00      0.00      0.00      0.00      0.00      0.00      0.00 0 0 0 0   0.0000 0 0 0 0
     28    321.32     88.13    338.00   -180.00  1.0200    100.00 1    592.00    216.00      0.00      0.00      0.00      0.00      0.00      0.00 0 0 0 0   0.0000 0 0 0 0
     30    185.95    -14.98    150.00    -80.00  1.0200    100.00 1    263.00    125.00      0.00      0.00      0.00      0.00      0.00      0.00 0 0 0 0   0.0000 0 0 0 0
     31    358.51     64.80    457.00   -244.00  1.0200    100.00 1    800.00    241.00      0.00      0.00      0.00      0.00      0.00      0.00 0 0 0 0   0.0000 0 0 0 0
     32    242.48      5.65    390.00   -208.00  1.0200    100.00 1    683.00    163.00      0.00      0.00      0.00      0.00      0.00      0.00 0 0 0 0   0.0000 0 0 0 0
     33    563.79    254.02    379.00   -202.00  1.0200    100.00 1    664.00    379.00      0.00      0.00      0.00      0.00      0.00      0.00 0 0 0 0   0.0000 0 0 0 0
     34    438.84    138.99    707.00   -377.00  1.0200    100.00 1   1237.00    295.00      0.00      0.00      0.00      0.00      0.00      0.00 0 0 0 0   0.0000 0 0 0 0
     35   1371.79    357.36    792.00   -422.00  1.0200    100.00 1   1386.00    924.00      0.00      0.00      0.00      0.00      0.00      0.00 0 0 0 0   0.0000 0 0 0 0
     36    208.26    103.08    336.00   -179.00  1.0200    100.00 1    588.00    140.00      0.00      0.00      0.00      0.00      0.00      0.00 0 0 0 0   0.0000 0 0 0 0
     37    148.76     71.96    324.00   -173.00  1.0200    100.00 1    567.00    100.00      0.00      0.00      0.00      0.00      0.00      0.00 0 0 0 0   0.0000 0 0 0 0
     38    309.42     30.81    498.00   -266.00  1.0200    100.00 1    872.00    208.00      0.00      0.00      0.00      0.00      0.00      0.00 0 0 0 0   0.0000 0 0 0 0
     49    476.02    156.10    347.00   -185.00  1.0200    100.00 1    607.00    320.00      0.00      0.00      0.00      0.00      0.00      0.00 0 0 0 0   0.0000 0 0 0 0
     52    240.99    268.07    938.00   -500.00  1.0200    100.00 1   1642.00    162.00      0.00      0.00      0.00      0.00      0.00      0.00 0 0 0 0   0.0000 0 0 0 0
     54    309.42     21.76    312.00   -166.00  1.0200    100.00 1    546.00    208.00      0.00      0.00      0.00      0.00      0.00      0.00 0 0 0 0   0.0000 0 0 0 0
     56    618.83    258.01    416.00   -222.00  1.0200    100.00 1    728.00    416.00      0.00      0.00      0.00      0.00      0.00      0.00 0 0 0 0   0.0000 0 0 0 0
     69    221.65    177.66    297.00   -158.00  1.0200    100.00 1    520.00    149.00      0.00      0.00      0.00      0.00      0.00      0.00 0 0 0 0   0.0000 0 0 0 0
     72    126.44    150.00    150.00    -80.00  1.0200    100.00 1    263.00     85.00      0.00      0.00      0.00      0.00      0.00      0.00 0 0 0 0   0.0000 0 0 0 0
     76    647.10    278.46    504.00   -269.00  1.0200    100.00 1    882.00    435.00      0.00      0.00      0.00      0.00      0.00      0.00 0 0 0 0   0.0000 0 0 0 0
     78    193.39    -61.24    165.00    -88.00  1.0200    100.00 1    288.00    130.00      0.00      0.00      0.00      0.00      0.00      0.00 0 0 0 0   0.0000 0 0 0 0
     80    168.10    -58.57    330.00   -176.00  1.0200    100.00 1    578.00    113.00      0.00      0.00      0.00      0.00      0.00      0.00 0 0 0 0   0.0000 0 0 0 0
     82    261.81    -31.12    179.00    -95.00  1.0200    100.00 1    313.00    176.00      0.00      0.00      0.00      0.00      0.00      0.00 0 0 0 0   0.0000 0 0 0 0
     84    251.40     62.68    508.00   -271.00  1.0200    100.00 1    888.00    169.00      0.00      0.00      0.00      0.00      0.00      0.00 0 0 0 0   0.0000 0 0 0 0
    103    309.42    267.78    523.00   -279.00  1.0200    100.00 1    916.00    208.00      0.00      0.00      0.00      0.00      0.00      0.00 0 0 0 0   0.0000 0 0 0 0
    120    239.50    434.38    483.00   -258.00  1.0200    100.00 1    845.00    161.00      0.00      0.00      0.00      0.00      0.00      0.00 0 0 0 0   0.0000 0 0 0 0
    128    267.76     37.04    216.00   -115.00  1.0200    100.00 1    378.00    180.00      0.00      0.00      0.00      0.00      0.00      0.00 0 0 0 0   0.0000 0 0 0 0
    130    171.07    119.83    153.00    -81.00  1.0200    100.00 1    267.00    115.00      0.00      0.00      0.00      0.00      0.00      0.00 0 0 0 0   0.0000 0 0 0 0
    141   1304.61    341.63    967.00   -515.00  1.0200    100.00 1   1691.00    877.00      0.00      0.00      0.00      0.00      0.00      0.00 0 0 0 0   0.0000 0 0 0 0
    143    230.57    138.75    173.00    -92.00  1.0200    100.00 1    303.00    155.00      0.00      0.00      0.00      0.00      0.00      0.00 0 0 0 0   0.0000 0 0 0 0
    146    446.27    347.00    347.00   -185.00  1.0200    100.00 1    607.00    300.00      0.00      0.00      0.00      0.00      0.00      0.00 0 0 0 0   0.0000 0 0 0 0
    149    271.19     75.04    157.00    -83.00  1.0200    100.00 1    274.00    186.00      0.00      0.00      0.00      0.00      0.00      0.00 0 0 0 0   0.0000 0 0 0 0
    157    428.42     88.92    298.00   -159.00  1.0200    100.00 1    521.00    288.00      0.00      0.00      0.00      0.00      0.00      0.00 0 0 0 0   0.0000 0 0 0 0
    162    342.14    132.03    363.00   -194.00  1.0200    100.00 1    636.00    230.00      0.00      0.00      0.00      0.00      0.00      0.00 0 0 0 0   0.0000 0 0 0 0
    165   1163.29    107.33    745.00   -397.00  1.0200    100.00 1   1304.00    782.00      0.00      0.00      0.00      0.00      0.00      0.00 0 0 0 0   0.0000 0 0 0 0
    166    412.06    155.10    474.00   -253.00  1.0200    100.00 1    830.00    277.00      0.00      0.00      0.00      0.00      0.00      0.00 0 0 0 0   0.0000 0 0 0 0
    175    310.90     72.00    358.00   -191.00  1.0200    100.00 1    626.00    209.00      0.00      0.00      0.00      0.00      0.00      0.00 0 0 0 0   0.0000 0 0 0 0
    176    127.93     33.80    153.00    -81.00  1.0200    100.00 1    267.00     86.00      0.00      0.00      0.00      0.00      0.00      0.00 0 0 0 0   0.0000 0 0 0 0
];

%% generator cost data
mpc.gencost = [
2 0 0 4   0.0000    0.001   17.500   450.00
2 0 0 4   0.0000    0.001   24.757  1505.67
2 0 0 4   0.0000    0.002   24.400  3342.77
2 0 0 4   0.0000    0.005   30.562  1114.42
2 0 0 4   0.0000    0.001   25.697  6313.07
2 0 0 4   0.0000    0.002   27.100  1297.89
2 0 0 4   0.0000    0.005   27.249   783.88
2 0 0 4   0.0000    0.002   26.174  1372.76
2 0 0 4   0.0000    0.006   26.053   655.13
2 0 0 4   0.0000    0.002   29.298  3418.85
2 0 0 4   0.0000    0.002   29.135  1458.22
2 0 0 4   0.0000    0.001   23.899  4734.80
2 0 0 4   0.0000    0.004   29.960  3677.05
2 0 0 4   0.0000    0.001   26.605  6691.85
2 0 0 4   0.0000    0.002   26.400  3342.77
2 0 0 4   0.0000    0.004   52.785  7415.02
2 0 0 4   0.0000    0.003   27.114  3844.19
2 0 0 4   0.0000    0.002   25.878  1390.96
2 0 0 4   0.0000    0.003   21.871  2841.36
2 0 0 4   0.0000    0.002   26.558  1284.25
2 0 0 4   0.0000    0.001   24.540  1581.44
2 0 0 4   0.0000    0.002   25.780  3523.95
2 0 0 4   0.0000    0.003   22.330  2325.41
2 0 0 4   0.0000    0.001   25.323  1978.07
2 0 0 4   0.0000    0.005   26.473   732.25
2 0 0 4   0.0000    0.002   26.356  1347.98
2 0 0 4   0.0000    0.008   27.364   550.89
2 0 0 4   0.0000    0.004   31.864  3610.20
2 0 0 4   0.0000    0.001   25.117  2036.75
2 0 0 4   0.0000    0.004   32.314  3777.33
2 0 0 4   0.0000    0.004   26.167   947.57
2 0 0 4   0.0000    0.006   27.791   710.04
2 0 0 4   0.0000    0.003   27.697  4313.07
2 0 0 4   0.0000    0.005   26.616   773.70
2 0 0 4   0.0000    0.002   26.010  1398.04
2 0 0 4   0.0000    0.006   27.475   721.30
2 0 0 4   0.0000    0.006   32.756  1215.71
2 0 0 4   0.0000    0.002   25.916  1460.47
2 0 0 4   0.0000    0.001   26.918  6534.03
2 0 0 4   0.0000    0.001   25.325  1860.51
2 0 0 4   0.0000    0.002   25.962  1438.95
2 0 0 4   0.0000    0.006   27.924   713.43
];

%% branch data
mpc.branch = [
      1       2  0.005978  0.120624   1.98515    414.51    414.51    414.51 1.00000    0.000 1    0.00    0.00      4.46   -103.00     -4.46   -105.16 0 0 0 0
      2      30  0.000000  0.018100   0.00000   1000.00   1000.00   1000.00 1.00000    0.000 1    0.00    0.00   -185.94     21.03    185.94    -14.98 0 0 0 0
      2      39  0.008680  0.060198   0.52937    530.03    530.03    530.03 1.00000    0.000 1    0.00    0.00    208.46    -32.79   -204.85      2.76 0 0 0 0
      2     139  0.003390  0.023178   0.20974    530.03    530.03    530.03 1.00000    0.000 1    0.00    0.00    111.10     12.25   -110.68    -31.17 0 0 0 0
      2     181  0.007607  0.052755   0.46393    530.03    530.03    530.03 1.00000    0.000 1    0.00    0.00   -202.07      9.97    205.12    -37.51 0 0 0 0
      2     201  0.002742  0.018748   0.16965    530.03    530.03    530.03 1.00000    0.000 1    0.00    0.00    -32.87     62.13     33.03    -78.59 0 0 0 0
      3      18  0.003829  0.158129   0.09685    316.20    316.20    316.20 1.00000    0.000 1    0.00    0.00    103.25     32.36   -102.81    -23.64 0 0 0 0
      3     181  0.000638  0.030000   0.00000    400.00    400.00    400.00 1.00000    0.000 1    0.00    0.00    340.03    -11.40   -339.32     44.78 0 0 0 0
      4      75  0.016845  0.038117   0.00951    107.32    107.32    107.32 1.00000    0.000 1    0.00    0.00     29.17     15.48    -28.97    -15.90 0 0 0 0
      4     182  0.000889  0.040000   0.00000    300.00    300.00    300.00 1.00000    0.000 1    0.00    0.00   -110.32    -39.66    110.45     45.60 0 0 0 0
      5       8  0.002959  0.039331   0.08406    578.83    578.83    578.83 1.00000    0.000 1    0.00    0.00   -119.01   -105.12    119.77    106.85 0 0 0 0
      5     183  0.001261  0.046667   0.00000    150.00    150.00    150.00 1.00000    0.000 1    0.00    0.00      6.90    -48.91     -6.87     50.11 0 0 0 0
      5     184  0.045023  0.111012   0.17939    178.87    178.87    178.87 1.00000    0.000 1    0.00    0.00   -156.87     42.55    169.77    -28.39 0 0 0 0
      5     207  0.001124  0.013276   0.03027    541.39    541.39    541.39 1.00000    0.000 1    0.00    0.00    169.64     78.74   -169.22    -76.66 0 0 0 0
      6       7  0.062002  0.145750   0.03365    107.32    107.32    107.32 1.00000    0.000 1    0.00    0.00    139.71    -50.94   -126.32     78.96 0 0 0 0
      6      31  0.000000  0.025000   0.00000   1100.00   1100.00   1100.00 1.00000    0.000 1    0.00    0.00   -358.49    -32.91    358.49     64.80 0 0 0 0
      6      70  0.033638  0.077688   0.01859    107.32    107.32    107.32 1.00000    0.000 1    0.00    0.00   -105.48     53.23    110.14    -44.36 0 0 0 0
      6     184  0.000297  0.014545   0.00000    550.00    550.00    550.00 1.00000    0.000 1    0.00    0.00    261.60    -10.19   -261.40     20.01 0 0 0 0
      6     185  0.000556  0.026667   0.00000    450.00    450.00    450.00 1.00000    0.000 1    0.00    0.00    -29.08     13.26     29.09    -13.00 0 0 0 0
      7     186  0.000336  0.017143   0.00000    700.00    700.00    700.00 1.00000    0.000 1    0.00    0.00    177.52    106.25   -177.38    -99.20 0 0 0 0
      8      54  0.000326  0.005080   0.01216    665.28    665.28    665.28 1.00000    0.000 1    0.00    0.00   -221.43     14.80    221.58    -13.66 0 0 0 0
      8     187  0.000196  0.010000   0.00000    700.00    700.00    700.00 1.00000    0.000 1    0.00    0.00    262.12     30.19   -261.99    -23.50 0 0 0 0
    187       9  0.006838  0.047422   0.41703    530.03    530.03    530.03 1.00000    0.000 1    0.00    0.00      0.03    -43.34      0.00     -0.00 0 0 0 0
     10      11  0.000315  0.008557   0.00495    566.01    566.01    566.01 1.00000    0.000 1    0.00    0.00    284.39     41.17   -284.14    -34.89 0 0 0 0
     10      32  0.000000  0.020000   0.00000   1000.00   1000.00   1000.00 1.00000    0.000 1    0.00    0.00   -242.47      5.65    242.47      5.65 0 0 0 0
     10      70  0.005799  0.067267   0.02063    324.83    324.83    324.83 1.00000    0.000 1    0.00    0.00    214.46     16.12   -211.88     11.70 0 0 0 0
     10     188  0.000073  0.003750   0.00000   3200.00   3200.00   3200.00 1.00000    0.000 1    0.00    0.00   2191.42    189.38  -2188.01    -14.99 0 0 0 0
     12      11  0.001279  0.043500   0.00000    100.00    100.00    100.00 1.00000    0.000 1    0.00    0.00    -44.77     -1.34     44.80      2.19 0 0 0 0
     11     173  0.016673  0.124076   0.03486    237.35    237.35    237.35 1.00000    0.000 1    0.00    0.00    120.24     28.94   -117.75    -13.86 0 0 0 0
     11     189  0.001500  0.060000   0.00000    200.00    200.00    200.00 1.00000    0.000 1    0.00    0.00    119.10      3.76   -118.89      4.50 0 0 0 0
     12      13  0.003529  0.120000   0.00000    100.00    100.00    100.00 1.00000    0.000 1    0.00    0.00     42.03      0.51    -41.97      1.55 0 0 0 0
    188      13  0.000109  0.001949   0.02003   1045.73   1045.73   1045.73 1.00000    0.000 1    0.00    0.00    630.08     13.97   -629.66     -8.50 0 0 0 0
     13     190  0.000846  0.017908   0.26779   1060.07   1060.07   1060.07 1.00000    0.000 1    0.00    0.00    671.63      6.95   -667.91     44.27 0 0 0 0
     14      15  0.036111  0.089040   0.14388    178.87    178.87    178.87 1.00000    0.000 1    0.00    0.00     89.22    -29.33    -86.24     22.06 0 0 0 0
     14     177  0.018818  0.067761   0.11459    229.46    229.46    229.46 1.00000    0.000 1    0.00    0.00     80.95    -20.75    -79.71     13.53 0 0 0 0
     14     190  0.000233  0.011667   0.00000    600.00    600.00    600.00 1.00000    0.000 1    0.00    0.00   -288.01     16.07    288.20     -6.59 0 0 0 0
     15      61  0.004135  0.027504   0.05200    353.36    353.36    353.36 1.00000    0.000 1    0.00    0.00    122.39    -43.96   -121.71     43.25 0 0 0 0
    184      15  0.003431  0.042042   0.08894    541.39    541.39    541.39 1.00000    0.000 1    0.00    0.00    124.14      3.04   -123.62     -5.66 0 0 0 0
     15     191  0.002059  0.070000   0.00000    100.00    100.00    100.00 1.00000    0.000 1    0.00    0.00    -52.51    -14.22     52.57     16.27 0 0 0 0
     16     149  0.014227  0.046950   0.01231    137.68    137.68    137.68 1.00000    0.000 1    0.00    0.00    -66.85    -18.54     67.53     19.52 0 0 0 0
     16     192  0.001000  0.040000   0.00000    200.00    200.00    200.00 1.00000    0.000 1    0.00    0.00    -22.06    -12.25     22.06     12.51 0 0 0 0
     16     193  0.001116  0.048000   0.00000    250.00    250.00    250.00 1.00000    0.000 1    0.00    0.00    -65.78    -14.13     65.83     16.30 0 0 0 0
     17      18  0.056699  0.194499   0.04709    137.68    137.68    137.68 1.00000    0.000 1    0.00    0.00     -4.25      1.20      4.26     -5.60 0 0 0 0
     17     145  0.046728  0.104525   0.02669    107.32    107.32    107.32 1.00000    0.000 1    0.00    0.00    -27.52      2.97     27.90     -4.68 0 0 0 0
     17     194  0.002162  0.080000   0.00000    150.00    150.00    150.00 1.00000    0.000 1    0.00    0.00    -55.68    -33.63     55.77     37.18 0 0 0 0
     19      20  0.000426  0.020000   0.00000    400.00    400.00    400.00 1.00000    0.000 1    0.00    0.00   -252.92    -43.75    253.20     57.26 0 0 0 0
     19      33  0.000700  0.014200   0.00000   1000.00   1000.00   1000.00 1.00000    0.000 1    0.00    0.00   -434.36   -190.55    435.97    223.29 0 0 0 0
     19      96  0.055097  0.129519   0.02990    107.32    107.32    107.32 1.00000    0.000 1    0.00    0.00     13.47      2.58    -13.36     -5.20 0 0 0 0
     19     105  0.000528  0.012761   0.00724    522.03    522.03    522.03 1.00000    0.000 1    0.00    0.00    230.70     75.32   -230.38    -68.31 0 0 0 0
     19     110  0.005086  0.023707   0.00609    173.53    173.53    173.53 1.00000    0.000 1    0.00    0.00     69.08     22.51    -68.80    -21.82 0 0 0 0
     19     118  0.000642  0.013449   0.00755    474.70    474.70    474.70 1.00000    0.000 1    0.00    0.00    283.62     83.04   -283.05    -71.72 0 0 0 0
     19     175  0.056202  0.251624   0.07017    173.53    173.53    173.53 1.00000    0.000 1    0.00    0.00    -47.62     -2.60     48.93      1.38 0 0 0 0
     19     195  0.002353  0.080000   0.00000    100.00    100.00    100.00 1.00000    0.000 1    0.00    0.00     37.83     13.94    -37.80    -12.61 0 0 0 0
     19     196  0.003529  0.120000   0.00000    100.00    100.00    100.00 1.00000    0.000 1    0.00    0.00     -1.72      5.88      1.72     -5.83 0 0 0 0
     20      34  0.000900  0.018000   0.00000    600.00    600.00    600.00 1.00000    0.000 1    0.00    0.00   -354.04    -88.32    355.24    112.34 0 0 0 0
     21     129  0.006980  0.035005   0.01005    187.39    187.39    187.39 1.00000    0.000 1    0.00    0.00     93.96     26.48    -93.26    -23.91 0 0 0 0
     21     130  0.007383  0.060698   0.01884    261.01    261.01    261.01 1.00000    0.000 1    0.00    0.00   -115.05    -54.23    116.29     62.60 0 0 0 0
     21     197  0.001441  0.053333   0.00000    150.00    150.00    150.00 1.00000    0.000 1    0.00    0.00    -20.15     -9.31     20.16      9.59 0 0 0 0
     21     198  0.001500  0.060000   0.00000    200.00    200.00    200.00 1.00000    0.000 1    0.00    0.00    -97.29     -1.57     97.44      7.54 0 0 0 0
     22      23  0.013985  0.034482   0.05572    178.87    178.87    178.87 1.00000    0.000 1    0.00    0.00    110.39    -56.57   -108.23     56.42 0 0 0 0
     22      35  0.000000  0.014300   0.00000   1950.00   1950.00   1950.00 1.00000    0.000 1    0.00    0.00  -1371.74    -81.17   1371.74    357.36 0 0 0 0
     22     199  0.000131  0.006667   0.00000   1050.00   1050.00   1050.00 1.00000    0.000 1    0.00    0.00   1134.75    101.79  -1133.02    -13.28 0 0 0 0
     23      24  0.043009  0.106048   0.17137    178.87    178.87    178.87 1.00000    0.000 1    0.00    0.00     38.05    -47.62    -36.75     33.47 0 0 0 0
     23      36  0.000500  0.027200   0.00000   1000.00   1000.00   1000.00 1.00000    0.000 1    0.00    0.00   -207.99    -88.96    208.25    103.08 0 0 0 0
     23      90  0.006901  0.020365   0.03648    206.75    206.75    206.75 1.00000    0.000 1    0.00    0.00     83.84     27.78    -83.28    -29.70 0 0 0 0
     23      91  0.012793  0.054395   0.09557    262.53    262.53    262.53 1.00000    0.000 1    0.00    0.00     97.58     21.94    -96.26    -25.48 0 0 0 0
     24     177  0.002078  0.014281   0.02528    353.36    353.36    353.36 1.00000    0.000 1    0.00    0.00    161.92     58.04   -161.32    -56.56 0 0 0 0
     24     200  0.000372  0.017500   0.00000    400.00    400.00    400.00 1.00000    0.000 1    0.00    0.00    185.94     61.38   -185.80    -54.93 0 0 0 0
     25      37  0.000600  0.023200   0.00000   1000.00   1000.00   1000.00 1.00000    0.000 1    0.00    0.00   -148.60    -65.87    148.75     71.96 0 0 0 0
     25     133  0.006133  0.048676   0.09258    395.58    395.58    395.58 1.00000    0.000 1    0.00    0.00     36.55     38.98    -36.35    -46.52 0 0 0 0
     25     168  0.018164  0.045274   0.07160    178.87    178.87    178.87 1.00000    0.000 1    0.00    0.00     65.78     18.14    -64.92    -23.04 0 0 0 0
     25     201  0.001261  0.046667   0.00000    150.00    150.00    150.00 1.00000    0.000 1    0.00    0.00    -26.84    -15.83     26.85     16.28 0 0 0 0
     26      42  0.007136  0.049490   0.43522    530.03    530.03    530.03 1.00000    0.000 1    0.00    0.00     87.61    -32.92    -87.07     -8.65 0 0 0 0
     26      43  0.001333  0.009112   0.08245    530.03    530.03    530.03 1.00000    0.000 1    0.00    0.00     79.64     35.04    -79.54    -42.89 0 0 0 0
     26     202  0.010447  0.072454   0.63716    530.03    530.03    530.03 1.00000    0.000 1    0.00    0.00    -78.02     14.95     78.87    -73.82 0 0 0 0
     27     160  0.022175  0.054676   0.08835    178.87    178.87    178.87 1.00000    0.000 1    0.00    0.00     40.63     18.40    -40.14    -25.52 0 0 0 0
     27     202  0.000519  0.023333   0.00000    300.00    300.00    300.00 1.00000    0.000 1    0.00    0.00   -137.31    -51.17    137.43     56.36 0 0 0 0
     28      77  0.066564  0.156472   0.03612    107.32    107.32    107.32 1.00000    0.000 1    0.00    0.00     48.05     -1.07    -46.57      0.89 0 0 0 0
     28      88  0.001156  0.018601   0.00608    418.29    418.29    418.29 1.00000    0.000 1    0.00    0.00    123.24     43.80   -123.05    -41.36 0 0 0 0
     28     203  0.005926  0.160000   0.00000     50.00     50.00     50.00 1.00000    0.000 1    0.00    0.00      6.80      5.11     -6.80     -5.00 0 0 0 0
     28     204  0.003529  0.120000   0.00000    100.00    100.00    100.00 1.00000    0.000 1    0.00    0.00      9.49      1.60     -9.49     -1.49 0 0 0 0
     29      38  0.000800  0.015600   0.00000   1200.00   1200.00   1200.00 1.00000    0.000 1    0.00    0.00   -308.66    -16.32    309.41     30.81 0 0 0 0
     29      84  0.009549  0.091679   0.02681    283.00    283.00    283.00 1.00000    0.000 1    0.00    0.00     70.39    -13.12    -69.92     14.89 0 0 0 0
     29     205  0.000209  0.010667   0.00000    750.00    750.00    750.00 1.00000    0.000 1    0.00    0.00    153.44     -1.16   -153.39      3.60 0 0 0 0
     39      43  0.005771  0.040026   0.35199    530.03    530.03    530.03 1.00000    0.000 1    0.00    0.00    119.75    -31.28   -118.94      0.59 0 0 0 0
     40      43  0.003602  0.023140   0.23770    530.03    530.03    530.03 1.00000    0.000 1    0.00    0.00    -85.32    -26.27     85.59      3.62 0 0 0 0
    202      41  0.002711  0.018804   0.16536    530.03    530.03    530.03 1.00000    0.000 1    0.00    0.00    109.45     17.26   -109.10    -31.13 0 0 0 0
     42     167  0.006872  0.049342   0.40438    530.03    530.03    530.03 1.00000    0.000 1    0.00    0.00    -33.35    -22.92     33.42    -18.74 0 0 0 0
     44      55  0.007424  0.027027   0.04470    229.46    229.46    229.46 1.00000    0.000 1    0.00    0.00    -51.31     24.25     51.55    -27.86 0 0 0 0
     44     206  0.000372  0.017500   0.00000    400.00    400.00    400.00 1.00000    0.000 1    0.00    0.00    -34.95    -54.64     34.97     55.37 0 0 0 0
     45      52  0.000887  0.008362   0.07659    652.53    652.53    652.53 1.00000    0.000 1    0.00    0.00    -64.80    -72.57     64.87     65.37 0 0 0 0
    206      45  0.000420  0.002856   0.02611    530.03    530.03    530.03 1.00000    0.000 1    0.00    0.00     32.27     23.65    -32.26    -26.29 0 0 0 0
     45     212  0.001035  0.009761   0.08940    652.53    652.53    652.53 1.00000    0.000 1    0.00    0.00    -23.97     64.69     24.02    -73.31 0 0 0 0
     46      47  0.016826  0.106284   0.02894    212.01    212.01    212.01 1.00000    0.000 1    0.00    0.00     60.55     33.60    -59.63    -30.29 0 0 0 0
     46     207  0.000370  0.017778   0.00000    450.00    450.00    450.00 1.00000    0.000 1    0.00    0.00   -169.09    -70.03    169.22     76.66 0 0 0 0
     47      63  0.038101  0.089565   0.02068    107.32    107.32    107.32 1.00000    0.000 1    0.00    0.00    -39.64     -4.52     40.38      4.56 0 0 0 0
     48     150  0.003523  0.024436   0.21489    530.03    530.03    530.03 1.00000    0.000 1    0.00    0.00    109.78     17.37   -109.29    -33.57 0 0 0 0
    182      48  0.003417  0.023699   0.20841    530.03    530.03    530.03 1.00000    0.000 1    0.00    0.00    229.28     50.25   -227.28    -56.05 0 0 0 0
     49      65  0.001800  0.037712   0.02118    474.70    474.70    474.70 1.00000    0.000 1    0.00    0.00    171.77     70.47   -171.17    -60.07 0 0 0 0
     49     208  0.001000  0.040000   0.00000    200.00    200.00    200.00 1.00000    0.000 1    0.00    0.00    111.69     24.34   -111.57    -19.31 0 0 0 0
     49     209  0.001500  0.060000   0.00000    200.00    200.00    200.00 1.00000    0.000 1    0.00    0.00    113.55     31.11   -113.35    -23.11 0 0 0 0
     50      65  0.005258  0.037515   0.01148    237.35    237.35    237.35 1.00000    0.000 1    0.00    0.00    -89.00    -27.13     89.47     29.41 0 0 0 0
     50     210  0.003529  0.120000   0.00000    100.00    100.00    100.00 1.00000    0.000 1    0.00    0.00    -23.83    -11.92     23.86     12.81 0 0 0 0
     51      68  0.004060  0.037344   0.01192    283.00    283.00    283.00 1.00000    0.000 1    0.00    0.00    -77.26     12.34     77.52    -11.12 0 0 0 0
     51      72  0.000709  0.007194   0.00234    304.04    304.04    304.04 1.00000    0.000 1    0.00    0.00    -22.26    -44.67     22.27     44.63 0 0 0 0
    183      52  0.002047  0.021637   0.20301    707.51    707.51    707.51 1.00000    0.000 1    0.00    0.00     15.65   -113.34    -15.43     95.04 0 0 0 0
    206      52  0.000643  0.006662   0.06506    707.51    707.51    707.51 1.00000    0.000 1    0.00    0.00    -67.24    -79.03     67.30     72.96 0 0 0 0
     53      57  0.006894  0.059124   0.01683    261.01    261.01    261.01 1.00000    0.000 1    0.00    0.00     -5.20     64.56      5.51    -63.37 0 0 0 0
     53      73  0.003976  0.033438   0.00991    261.01    261.01    261.01 1.00000    0.000 1    0.00    0.00     56.99    -48.48    -56.76     49.52 0 0 0 0
     53     211  0.000369  0.018462   0.00000    650.00    650.00    650.00 1.00000    0.000 1    0.00    0.00   -228.96    -73.21    229.19     84.59 0 0 0 0
     55      61  0.034539  0.120369   0.21762    229.46    229.46    229.46 1.00000    0.000 1    0.00    0.00    -92.39     14.45     95.55    -25.47 0 0 0 0
    208      55  0.006202  0.018912   0.03169    206.75    206.75    206.75 1.00000    0.000 1    0.00    0.00     94.66     13.92    -94.10    -15.43 0 0 0 0
     55     212  0.001261  0.046667   0.00000    150.00    150.00    150.00 1.00000    0.000 1    0.00    0.00     16.38    -12.44    -16.38     12.63 0 0 0 0
    185      56  0.000908  0.009601   0.09009    707.51    707.51    707.51 1.00000    0.000 1    0.00    0.00    119.43   -175.75   -119.03    170.66 0 0 0 0
    191      56  0.000301  0.008151   0.12418   1246.50   1246.50   1246.50 1.00000    0.000 1    0.00    0.00   -609.73    -32.09    610.81     48.70 0 0 0 0
     57      60  0.018675  0.042258   0.01054    107.32    107.32    107.32 1.00000    0.000 1    0.00    0.00    -80.78     35.34     82.46    -32.42 0 0 0 0
     58      62  0.002141  0.014851   0.13060    530.03    530.03    530.03 1.00000    0.000 1    0.00    0.00    117.33     22.39   -117.01    -33.09 0 0 0 0
     58      66  0.001447  0.010038   0.08828    530.03    530.03    530.03 1.00000    0.000 1    0.00    0.00    -54.94    -38.19     55.01     29.81 0 0 0 0
    185      58  0.002185  0.015152   0.13324    530.03    530.03    530.03 1.00000    0.000 1    0.00    0.00    213.74     19.11   -212.74    -25.49 0 0 0 0
    191      59  0.000938  0.006385   0.05837    530.03    530.03    530.03 1.00000    0.000 1    0.00    0.00    281.79     23.69   -281.06    -24.71 0 0 0 0
     59     213  0.000907  0.006172   0.05642    530.03    530.03    530.03 1.00000    0.000 1    0.00    0.00    184.70     -7.06   -184.40      3.36 0 0 0 0
     60      63  0.017610  0.040671   0.00973    107.32    107.32    107.32 1.00000    0.000 1    0.00    0.00     75.17    -11.08    -73.99     12.96 0 0 0 0
     60      64  0.005655  0.040347   0.01235    237.35    237.35    237.35 1.00000    0.000 1    0.00    0.00   -265.19      6.12    269.79     25.62 0 0 0 0
     61     143  0.002057  0.016137   0.03143    395.58    395.58    395.58 1.00000    0.000 1    0.00    0.00     33.41    -66.99    -33.30     64.60 0 0 0 0
    192      61  0.004667  0.025655   0.04713    312.32    312.32    312.32 1.00000    0.000 1    0.00    0.00    -50.11     -6.17     50.23      2.01 0 0 0 0
     61     213  0.000519  0.023333   0.00000    300.00    300.00    300.00 1.00000    0.000 1    0.00    0.00   -184.22     11.15    184.40     -3.36 0 0 0 0
     63      75  0.005417  0.046454   0.01323    261.01    261.01    261.01 1.00000    0.000 1    0.00    0.00    -59.45    -52.73     59.85     55.00 0 0 0 0
     64     214  0.000336  0.017143   0.00000    700.00    700.00    700.00 1.00000    0.000 1    0.00    0.00   -459.71    -85.70    460.53    127.21 0 0 0 0
     66      71  0.001271  0.008811   0.07749    530.03    530.03    530.03 1.00000    0.000 1    0.00    0.00   -149.05    -65.89    149.38     60.37 0 0 0 0
     67      68  0.002882  0.026509   0.00846    283.00    283.00    283.00 1.00000    0.000 1    0.00    0.00   -106.96    -30.79    107.34     33.47 0 0 0 0
     68     215  0.000336  0.017143   0.00000    700.00    700.00    700.00 1.00000    0.000 1    0.00    0.00   -312.62    -62.19    312.97     80.25 0 0 0 0
    189      69  0.001131  0.007735   0.06999    530.03    530.03    530.03 1.00000    0.000 1    0.00    0.00     27.81    -81.26    -27.73     74.53 0 0 0 0
     69     247  0.002929  0.020317   0.17866    530.03    530.03    530.03 1.00000    0.000 1    0.00    0.00    173.20     75.28   -172.15    -86.23 0 0 0 0
     71      76  0.001422  0.009863   0.08674    530.03    530.03    530.03 1.00000    0.000 1    0.00    0.00   -232.22    -88.83    233.07     85.83 0 0 0 0
     72      73  0.000275  0.004586   0.00284    424.03    424.03    424.03 1.00000    0.000 1    0.00    0.00     29.89     78.14    -29.87    -78.09 0 0 0 0
    182      74  0.000498  0.003455   0.03038    530.03    530.03    530.03 1.00000    0.000 1    0.00    0.00    233.77     -5.54   -233.49      4.58 0 0 0 0
    210      74  0.001292  0.011415   0.10343    623.25    623.25    623.25 1.00000    0.000 1    0.00    0.00     -7.23    105.72      7.39   -114.36 0 0 0 0
     74     216  0.000640  0.004357   0.03984    530.03    530.03    530.03 1.00000    0.000 1    0.00    0.00    130.91     77.06   -130.76    -79.81 0 0 0 0
     75     216  0.000638  0.030000   0.00000    400.00    400.00    400.00 1.00000    0.000 1    0.00    0.00   -130.60    -72.42    130.76     79.81 0 0 0 0
    190      76  0.001435  0.009955   0.08755    530.03    530.03    530.03 1.00000    0.000 1    0.00    0.00    149.86   -111.57   -149.39    105.84 0 0 0 0
     76     238  0.003386  0.047034   0.46520    868.25    868.25    868.25 1.00000    0.000 1    0.00    0.00    438.27     56.37   -431.80    -13.54 0 0 0 0
     77      84  0.006198  0.069744   0.01841    304.04    304.04    304.04 1.00000    0.000 1    0.00    0.00    -75.83    -34.77     76.27     37.82 0 0 0 0
     77      89  0.016077  0.099621   0.02821    212.01    212.01    212.01 1.00000    0.000 1    0.00    0.00     84.35     36.62    -82.95    -30.56 0 0 0 0
     77     217  0.005926  0.160000   0.00000     50.00     50.00     50.00 1.00000    0.000 1    0.00    0.00    -21.78     -6.42     21.81      7.26 0 0 0 0
     77     218  0.003529  0.120000   0.00000    100.00    100.00    100.00 1.00000    0.000 1    0.00    0.00    -25.43    -20.94     25.47     22.27 0 0 0 0
     78      79  0.014099  0.097781   0.85988    511.35    511.35    511.35 1.00000    0.000 1    0.00    0.00    133.83    -71.06   -131.31     -2.26 0 0 0 0
     78     167  0.005724  0.038942   0.35603    530.03    530.03    530.03 1.00000    0.000 1    0.00    0.00    -44.03    -19.70     44.13    -16.72 0 0 0 0
     79      87  0.008106  0.052075   0.53493    530.03    530.03    530.03 1.00000    0.000 1    0.00    0.00     -3.70    -43.15      3.72    -14.48 0 0 0 0
     80      81  0.005975  0.042908   0.35164    530.03    530.03    530.03 1.00000    0.000 1    0.00    0.00    -72.63      3.14     72.96    -37.21 0 0 0 0
     80      87  0.003558  0.071801   1.18166    696.37    696.37    696.37 1.00000    0.000 1    0.00    0.00    131.20    -94.34   -130.58    -18.75 0 0 0 0
     81      82  0.007764  0.053845   0.47351    530.03    530.03    530.03 1.00000    0.000 1    0.00    0.00   -190.48      4.87    193.27    -34.55 0 0 0 0
     82      83  0.007662  0.053138   0.46730    530.03    530.03    530.03 1.00000    0.000 1    0.00    0.00    -16.12    -21.75     16.14    -26.73 0 0 0 0
     83     219  0.005009  0.034736   0.30546    530.03    530.03    530.03 1.00000    0.000 1    0.00    0.00   -104.99     -3.71    105.53    -24.38 0 0 0 0
     84     219  0.000224  0.011429   0.00000   1050.00   1050.00   1050.00 1.00000    0.000 1    0.00    0.00    175.18    -15.75   -175.11     19.14 0 0 0 0
     85     154  0.017306  0.084819   0.15179    289.22    289.22    289.22 1.00000    0.000 1    0.00    0.00      3.43      2.74     -3.41    -17.27 0 0 0 0
    217      85  0.004299  0.043533   0.08806    471.67    471.67    471.67 1.00000    0.000 1    0.00    0.00     80.23     26.04    -79.91    -31.56 0 0 0 0
     86      88  0.044131  0.145633   0.03817    137.68    137.68    137.68 1.00000    0.000 1    0.00    0.00    -24.18    -12.10     24.49      9.34 0 0 0 0
     86     169  0.025279  0.129580   0.03558    187.39    187.39    187.39 1.00000    0.000 1    0.00    0.00    -39.17      3.38     39.58     -4.76 0 0 0 0
     86     220  0.000744  0.032000   0.00000    250.00    250.00    250.00 1.00000    0.000 1    0.00    0.00    -49.33    -25.07     49.35     26.08 0 0 0 0
...